Version 4
SHEET 1 2688 744
WIRE 160 208 -112 208
WIRE 368 208 256 208
WIRE 480 208 368 208
WIRE 672 208 544 208
WIRE 880 208 672 208
WIRE 256 256 176 256
WIRE -112 272 -112 208
WIRE 368 288 368 208
WIRE 176 304 176 256
WIRE 672 304 672 208
WIRE 880 304 880 208
WIRE -112 432 -112 352
WIRE 112 432 -112 432
WIRE 176 432 176 384
WIRE 176 432 112 432
WIRE 368 432 368 368
WIRE 368 432 176 432
WIRE 416 432 368 432
WIRE 672 432 672 368
WIRE 672 432 416 432
WIRE 880 432 880 384
WIRE 880 432 672 432
FLAG 112 432 0
FLAG 416 432 0
SYMBOL Voltage 176 288 R0
SYMATTR InstName V1
SYMATTR Value PULSE({voff} {von} 0 {tramp} {tramp} {ton} {tperiod})
SYMBOL ind 352 272 R0
SYMATTR InstName L1
SYMATTR Value 470µ
SYMBOL Diode 544 192 R90
WINDOW 0 0 32 VBottom 2
WINDOW 3 32 32 VTop 2
SYMATTR InstName D1
SYMBOL Cap 656 304 R0
SYMATTR InstName C2
SYMATTR Value 100µ
SYMBOL Res 864 288 R0
SYMATTR InstName R1
SYMATTR Value 1000
SYMBOL Voltage -112 256 R0
SYMATTR InstName V2
SYMATTR Value 5
SYMBOL pmos 256 256 M270
SYMATTR InstName M2
SYMATTR Value AO6407
TEXT 304 520 Left 2 !.param von=0\n.param voff=5\n.param f=100k\n.param tramp=0.001/f\n.param ton=D/f\n.param tperiod=  1/f
TEXT 656 480 Left 2 !.tran 10m
TEXT 648 560 Left 2 !.include irlb8721pbf.spi
TEXT 656 632 Left 2 !.step param D 0.1 0.9 0.2
TEXT 664 592 Left 2 ;.param D=0.375
TEXT 608 688 Left 2 ;.step param D list 0.02  0.17  0.29  0.38  0.44  0.50  0.55  0.58  0.62  0.64  0.67  0.69  0.71  0.72  0.74  0.75  0.76  0.77  0.78  0.79  0.80  0.81  0.81  0.82  0.83  0.83  0.84  0.84  0.85
