Version 4
SHEET 1 1028 680
WIRE 208 -16 160 -16
WIRE 320 -16 272 -16
WIRE 336 -16 320 -16
WIRE 432 -16 416 -16
WIRE 464 -16 432 -16
WIRE 576 -16 528 -16
WIRE 432 32 432 -16
WIRE 432 32 416 32
WIRE 320 64 320 -16
WIRE 416 64 416 32
WIRE 160 144 160 -16
WIRE 224 144 160 144
WIRE 576 144 576 -16
WIRE 576 144 512 144
WIRE 736 192 656 192
WIRE 848 192 736 192
WIRE -224 224 -384 224
WIRE 144 224 -224 224
WIRE 224 224 144 224
WIRE 656 224 656 192
WIRE 656 224 512 224
WIRE -384 256 -384 224
WIRE -224 272 -224 224
WIRE 144 304 144 224
WIRE 224 304 144 304
WIRE 592 304 592 288
WIRE 592 304 512 304
WIRE 592 384 592 304
WIRE 592 384 512 384
WIRE 144 464 144 304
WIRE 224 464 144 464
WIRE 224 544 128 544
FLAG 848 272 0
FLAG 736 256 0
FLAG -384 336 0
FLAG 512 624 0
FLAG 160 624 0
FLAG 128 544 Vcc
FLAG 208 624 Vcc
FLAG 592 288 Vcc
FLAG 512 464 0
FLAG -224 336 0
SYMBOL Cap 464 0 R270
WINDOW 0 32 32 VTop 2
WINDOW 3 0 32 VBottom 2
SYMATTR InstName C1
SYMATTR Value 22n
SYMBOL Cap 208 0 R270
WINDOW 0 32 32 VTop 2
WINDOW 3 0 32 VBottom 2
SYMATTR InstName C2
SYMATTR Value 22n
SYMBOL ind 320 0 R270
WINDOW 0 32 56 VTop 2
WINDOW 3 5 56 VBottom 2
SYMATTR InstName L1
SYMATTR Value 10µ
SYMBOL Res 832 176 R0
SYMATTR InstName R1
SYMATTR Value 300
SYMBOL Cap 720 192 R0
SYMATTR InstName C3
SYMATTR Value 10µ
SYMBOL Voltage -384 240 R0
SYMATTR InstName V1
SYMATTR Value 5
SYMBOL PowerProducts/LTC3130-1 368 368 R0
SYMATTR InstName U2
SYMBOL Cap 224 608 R90
WINDOW 0 0 32 VBottom 2
WINDOW 3 32 32 VTop 2
SYMATTR InstName C4
SYMATTR Value 4.7µ
SYMBOL Cap -240 272 R0
SYMATTR InstName C5
SYMATTR Value 10µ
TEXT 848 520 Left 2 !.tran 1m startup
